<?xml version="1.0" encoding="UTF-8" standalone="yes"?>
<template encoding-version="1.3">
    <description></description>
    <groupId>1361a610-0198-1000-b00e-ae226dc71589</groupId>
    <name>metrics_flow</name>
    <snippet>
        <connections>
            <id>124b7948-95bb-3457-0000-000000000000</id>
            <parentGroupId>682f2593-fd1e-31ff-0000-000000000000</parentGroupId>
            <versionedComponentId>124b7948-95bb-3457-8e87-00cb7d058c14</versionedComponentId>
            <backPressureDataSizeThreshold>1 GB</backPressureDataSizeThreshold>
            <backPressureObjectThreshold>10000</backPressureObjectThreshold>
            <destination>
                <groupId>682f2593-fd1e-31ff-0000-000000000000</groupId>
                <id>c904f6ab-840e-3604-0000-000000000000</id>
                <type>FUNNEL</type>
                <versionedComponentId>c904f6ab-840e-3604-bcf0-f8ea78ec6e61</versionedComponentId>
            </destination>
            <flowFileExpiration>0 sec</flowFileExpiration>
            <labelIndex>1</labelIndex>
            <loadBalanceCompression>DO_NOT_COMPRESS</loadBalanceCompression>
            <loadBalancePartitionAttribute></loadBalancePartitionAttribute>
            <loadBalanceStatus>LOAD_BALANCE_NOT_CONFIGURED</loadBalanceStatus>
            <loadBalanceStrategy>DO_NOT_LOAD_BALANCE</loadBalanceStrategy>
            <name></name>
            <selectedRelationships>failure</selectedRelationships>
            <selectedRelationships>unmatched</selectedRelationships>
            <source>
                <groupId>682f2593-fd1e-31ff-0000-000000000000</groupId>
                <id>c6bbb9df-53f8-3db0-0000-000000000000</id>
                <type>PROCESSOR</type>
                <versionedComponentId>c6bbb9df-53f8-3db0-ad89-80668ccc77a7</versionedComponentId>
            </source>
            <zIndex>0</zIndex>
        </connections>
        <connections>
            <id>3641f887-57ee-323e-0000-000000000000</id>
            <parentGroupId>682f2593-fd1e-31ff-0000-000000000000</parentGroupId>
            <backPressureDataSizeThreshold>1 GB</backPressureDataSizeThreshold>
            <backPressureObjectThreshold>10000</backPressureObjectThreshold>
            <destination>
                <groupId>682f2593-fd1e-31ff-0000-000000000000</groupId>
                <id>de7aeadc-dfc6-3a87-0000-000000000000</id>
                <type>FUNNEL</type>
            </destination>
            <flowFileExpiration>0 sec</flowFileExpiration>
            <labelIndex>1</labelIndex>
            <loadBalanceCompression>DO_NOT_COMPRESS</loadBalanceCompression>
            <loadBalancePartitionAttribute></loadBalancePartitionAttribute>
            <loadBalanceStatus>LOAD_BALANCE_NOT_CONFIGURED</loadBalanceStatus>
            <loadBalanceStrategy>DO_NOT_LOAD_BALANCE</loadBalanceStrategy>
            <name></name>
            <selectedRelationships>success</selectedRelationships>
            <source>
                <groupId>682f2593-fd1e-31ff-0000-000000000000</groupId>
                <id>bfa25353-661f-34b9-0000-000000000000</id>
                <type>PROCESSOR</type>
                <versionedComponentId>bfa25353-661f-34b9-9ea2-a7595f037664</versionedComponentId>
            </source>
            <zIndex>0</zIndex>
        </connections>
        <connections>
            <id>52349005-c765-3ddc-0000-000000000000</id>
            <parentGroupId>682f2593-fd1e-31ff-0000-000000000000</parentGroupId>
            <versionedComponentId>52349005-c765-3ddc-877e-47895a34847f</versionedComponentId>
            <backPressureDataSizeThreshold>1 GB</backPressureDataSizeThreshold>
            <backPressureObjectThreshold>10000</backPressureObjectThreshold>
            <destination>
                <groupId>682f2593-fd1e-31ff-0000-000000000000</groupId>
                <id>c6bbb9df-53f8-3db0-0000-000000000000</id>
                <type>PROCESSOR</type>
                <versionedComponentId>c6bbb9df-53f8-3db0-ad89-80668ccc77a7</versionedComponentId>
            </destination>
            <flowFileExpiration>0 sec</flowFileExpiration>
            <labelIndex>1</labelIndex>
            <loadBalanceCompression>DO_NOT_COMPRESS</loadBalanceCompression>
            <loadBalancePartitionAttribute></loadBalancePartitionAttribute>
            <loadBalanceStatus>LOAD_BALANCE_NOT_CONFIGURED</loadBalanceStatus>
            <loadBalanceStrategy>DO_NOT_LOAD_BALANCE</loadBalanceStrategy>
            <name></name>
            <selectedRelationships>success</selectedRelationships>
            <source>
                <groupId>682f2593-fd1e-31ff-0000-000000000000</groupId>
                <id>81af2ff9-afb0-32a9-0000-000000000000</id>
                <type>PROCESSOR</type>
                <versionedComponentId>81af2ff9-afb0-32a9-93eb-34bc68791b26</versionedComponentId>
            </source>
            <zIndex>0</zIndex>
        </connections>
        <connections>
            <id>77ba857d-b842-35d0-0000-000000000000</id>
            <parentGroupId>682f2593-fd1e-31ff-0000-000000000000</parentGroupId>
            <versionedComponentId>77ba857d-b842-35d0-be66-defbe261ec8e</versionedComponentId>
            <backPressureDataSizeThreshold>1 GB</backPressureDataSizeThreshold>
            <backPressureObjectThreshold>10000</backPressureObjectThreshold>
            <destination>
                <groupId>682f2593-fd1e-31ff-0000-000000000000</groupId>
                <id>a666c466-c4ed-3ab0-0000-000000000000</id>
                <type>PROCESSOR</type>
                <versionedComponentId>a666c466-c4ed-3ab0-b6ef-b8e2ce45aa2e</versionedComponentId>
            </destination>
            <flowFileExpiration>0 sec</flowFileExpiration>
            <labelIndex>1</labelIndex>
            <loadBalanceCompression>DO_NOT_COMPRESS</loadBalanceCompression>
            <loadBalancePartitionAttribute></loadBalancePartitionAttribute>
            <loadBalanceStatus>LOAD_BALANCE_NOT_CONFIGURED</loadBalanceStatus>
            <loadBalanceStrategy>DO_NOT_LOAD_BALANCE</loadBalanceStrategy>
            <name></name>
            <selectedRelationships>success</selectedRelationships>
            <source>
                <groupId>682f2593-fd1e-31ff-0000-000000000000</groupId>
                <id>9721ef53-5486-39d2-0000-000000000000</id>
                <type>PROCESSOR</type>
                <versionedComponentId>9721ef53-5486-39d2-9891-8a36cb482586</versionedComponentId>
            </source>
            <zIndex>0</zIndex>
        </connections>
        <connections>
            <id>8e7d5db5-bfb1-3a0a-0000-000000000000</id>
            <parentGroupId>682f2593-fd1e-31ff-0000-000000000000</parentGroupId>
            <versionedComponentId>8e7d5db5-bfb1-3a0a-9fe1-9a4059ef9e1b</versionedComponentId>
            <backPressureDataSizeThreshold>1 GB</backPressureDataSizeThreshold>
            <backPressureObjectThreshold>10000</backPressureObjectThreshold>
            <destination>
                <groupId>682f2593-fd1e-31ff-0000-000000000000</groupId>
                <id>9721ef53-5486-39d2-0000-000000000000</id>
                <type>PROCESSOR</type>
                <versionedComponentId>9721ef53-5486-39d2-9891-8a36cb482586</versionedComponentId>
            </destination>
            <flowFileExpiration>0 sec</flowFileExpiration>
            <labelIndex>1</labelIndex>
            <loadBalanceCompression>DO_NOT_COMPRESS</loadBalanceCompression>
            <loadBalancePartitionAttribute></loadBalancePartitionAttribute>
            <loadBalanceStatus>LOAD_BALANCE_NOT_CONFIGURED</loadBalanceStatus>
            <loadBalanceStrategy>DO_NOT_LOAD_BALANCE</loadBalanceStrategy>
            <name></name>
            <selectedRelationships>success</selectedRelationships>
            <source>
                <groupId>682f2593-fd1e-31ff-0000-000000000000</groupId>
                <id>6e6713e9-b326-3458-0000-000000000000</id>
                <type>PROCESSOR</type>
                <versionedComponentId>6e6713e9-b326-3458-9c1c-506272cd0965</versionedComponentId>
            </source>
            <zIndex>0</zIndex>
        </connections>
        <connections>
            <id>900c44b4-7b08-35f1-0000-000000000000</id>
            <parentGroupId>682f2593-fd1e-31ff-0000-000000000000</parentGroupId>
            <versionedComponentId>900c44b4-7b08-35f1-b279-1e0bbef6c0f4</versionedComponentId>
            <backPressureDataSizeThreshold>1 GB</backPressureDataSizeThreshold>
            <backPressureObjectThreshold>10000</backPressureObjectThreshold>
            <destination>
                <groupId>682f2593-fd1e-31ff-0000-000000000000</groupId>
                <id>9aa49fdd-db59-3f86-0000-000000000000</id>
                <type>FUNNEL</type>
                <versionedComponentId>9aa49fdd-db59-3f86-aa91-45bbf5d2149d</versionedComponentId>
            </destination>
            <flowFileExpiration>0 sec</flowFileExpiration>
            <labelIndex>1</labelIndex>
            <loadBalanceCompression>DO_NOT_COMPRESS</loadBalanceCompression>
            <loadBalancePartitionAttribute></loadBalancePartitionAttribute>
            <loadBalanceStatus>LOAD_BALANCE_NOT_CONFIGURED</loadBalanceStatus>
            <loadBalanceStrategy>DO_NOT_LOAD_BALANCE</loadBalanceStrategy>
            <name></name>
            <selectedRelationships>failure</selectedRelationships>
            <source>
                <groupId>682f2593-fd1e-31ff-0000-000000000000</groupId>
                <id>bfa25353-661f-34b9-0000-000000000000</id>
                <type>PROCESSOR</type>
                <versionedComponentId>bfa25353-661f-34b9-9ea2-a7595f037664</versionedComponentId>
            </source>
            <zIndex>0</zIndex>
        </connections>
        <connections>
            <id>c93f6fb5-04d9-3df3-0000-000000000000</id>
            <parentGroupId>682f2593-fd1e-31ff-0000-000000000000</parentGroupId>
            <versionedComponentId>c93f6fb5-04d9-3df3-91fa-bd7b083d4725</versionedComponentId>
            <backPressureDataSizeThreshold>1 GB</backPressureDataSizeThreshold>
            <backPressureObjectThreshold>10000</backPressureObjectThreshold>
            <destination>
                <groupId>682f2593-fd1e-31ff-0000-000000000000</groupId>
                <id>5e9dc44b-30d0-3000-0000-000000000000</id>
                <type>FUNNEL</type>
                <versionedComponentId>5e9dc44b-30d0-3000-a523-5f3f27af7450</versionedComponentId>
            </destination>
            <flowFileExpiration>0 sec</flowFileExpiration>
            <labelIndex>1</labelIndex>
            <loadBalanceCompression>DO_NOT_COMPRESS</loadBalanceCompression>
            <loadBalancePartitionAttribute></loadBalancePartitionAttribute>
            <loadBalanceStatus>LOAD_BALANCE_NOT_CONFIGURED</loadBalanceStatus>
            <loadBalanceStrategy>DO_NOT_LOAD_BALANCE</loadBalanceStrategy>
            <name></name>
            <selectedRelationships>Failure</selectedRelationships>
            <selectedRelationships>No Retry</selectedRelationships>
            <selectedRelationships>Retry</selectedRelationships>
            <source>
                <groupId>682f2593-fd1e-31ff-0000-000000000000</groupId>
                <id>a666c466-c4ed-3ab0-0000-000000000000</id>
                <type>PROCESSOR</type>
                <versionedComponentId>a666c466-c4ed-3ab0-b6ef-b8e2ce45aa2e</versionedComponentId>
            </source>
            <zIndex>0</zIndex>
        </connections>
        <connections>
            <id>d2ade132-7d90-3e3f-0000-000000000000</id>
            <parentGroupId>682f2593-fd1e-31ff-0000-000000000000</parentGroupId>
            <versionedComponentId>d2ade132-7d90-3e3f-abaa-2c0e2265b1cd</versionedComponentId>
            <backPressureDataSizeThreshold>1 GB</backPressureDataSizeThreshold>
            <backPressureObjectThreshold>10000</backPressureObjectThreshold>
            <destination>
                <groupId>682f2593-fd1e-31ff-0000-000000000000</groupId>
                <id>bfa25353-661f-34b9-0000-000000000000</id>
                <type>PROCESSOR</type>
                <versionedComponentId>bfa25353-661f-34b9-9ea2-a7595f037664</versionedComponentId>
            </destination>
            <flowFileExpiration>0 sec</flowFileExpiration>
            <labelIndex>1</labelIndex>
            <loadBalanceCompression>DO_NOT_COMPRESS</loadBalanceCompression>
            <loadBalancePartitionAttribute></loadBalancePartitionAttribute>
            <loadBalanceStatus>LOAD_BALANCE_NOT_CONFIGURED</loadBalanceStatus>
            <loadBalanceStrategy>DO_NOT_LOAD_BALANCE</loadBalanceStrategy>
            <name></name>
            <selectedRelationships>Response</selectedRelationships>
            <source>
                <groupId>682f2593-fd1e-31ff-0000-000000000000</groupId>
                <id>a666c466-c4ed-3ab0-0000-000000000000</id>
                <type>PROCESSOR</type>
                <versionedComponentId>a666c466-c4ed-3ab0-b6ef-b8e2ce45aa2e</versionedComponentId>
            </source>
            <zIndex>0</zIndex>
        </connections>
        <connections>
            <id>d3cf5082-12ef-31c1-0000-000000000000</id>
            <parentGroupId>682f2593-fd1e-31ff-0000-000000000000</parentGroupId>
            <versionedComponentId>d3cf5082-12ef-31c1-ad5b-f07ead9cfc03</versionedComponentId>
            <backPressureDataSizeThreshold>1 GB</backPressureDataSizeThreshold>
            <backPressureObjectThreshold>10000</backPressureObjectThreshold>
            <destination>
                <groupId>682f2593-fd1e-31ff-0000-000000000000</groupId>
                <id>64f2b7d0-5dd5-3f2d-0000-000000000000</id>
                <type>FUNNEL</type>
                <versionedComponentId>64f2b7d0-5dd5-3f2d-abec-427d57f5d887</versionedComponentId>
            </destination>
            <flowFileExpiration>0 sec</flowFileExpiration>
            <labelIndex>1</labelIndex>
            <loadBalanceCompression>DO_NOT_COMPRESS</loadBalanceCompression>
            <loadBalancePartitionAttribute></loadBalancePartitionAttribute>
            <loadBalanceStatus>LOAD_BALANCE_NOT_CONFIGURED</loadBalanceStatus>
            <loadBalanceStrategy>DO_NOT_LOAD_BALANCE</loadBalanceStrategy>
            <name></name>
            <selectedRelationships>failure</selectedRelationships>
            <source>
                <groupId>682f2593-fd1e-31ff-0000-000000000000</groupId>
                <id>9721ef53-5486-39d2-0000-000000000000</id>
                <type>PROCESSOR</type>
                <versionedComponentId>9721ef53-5486-39d2-9891-8a36cb482586</versionedComponentId>
            </source>
            <zIndex>0</zIndex>
        </connections>
        <connections>
            <id>e88bef93-1d2f-32ae-0000-000000000000</id>
            <parentGroupId>682f2593-fd1e-31ff-0000-000000000000</parentGroupId>
            <versionedComponentId>e88bef93-1d2f-32ae-95f8-4fbb25bef20a</versionedComponentId>
            <backPressureDataSizeThreshold>1 GB</backPressureDataSizeThreshold>
            <backPressureObjectThreshold>10000</backPressureObjectThreshold>
            <destination>
                <groupId>682f2593-fd1e-31ff-0000-000000000000</groupId>
                <id>6e6713e9-b326-3458-0000-000000000000</id>
                <type>PROCESSOR</type>
                <versionedComponentId>6e6713e9-b326-3458-9c1c-506272cd0965</versionedComponentId>
            </destination>
            <flowFileExpiration>0 sec</flowFileExpiration>
            <labelIndex>1</labelIndex>
            <loadBalanceCompression>DO_NOT_COMPRESS</loadBalanceCompression>
            <loadBalancePartitionAttribute></loadBalancePartitionAttribute>
            <loadBalanceStatus>LOAD_BALANCE_NOT_CONFIGURED</loadBalanceStatus>
            <loadBalanceStrategy>DO_NOT_LOAD_BALANCE</loadBalanceStrategy>
            <name></name>
            <selectedRelationships>matched</selectedRelationships>
            <source>
                <groupId>682f2593-fd1e-31ff-0000-000000000000</groupId>
                <id>c6bbb9df-53f8-3db0-0000-000000000000</id>
                <type>PROCESSOR</type>
                <versionedComponentId>c6bbb9df-53f8-3db0-ad89-80668ccc77a7</versionedComponentId>
            </source>
            <zIndex>0</zIndex>
        </connections>
        <controllerServices>
            <id>ef49241c-370f-3d20-0000-000000000000</id>
            <parentGroupId>682f2593-fd1e-31ff-0000-000000000000</parentGroupId>
            <versionedComponentId>ef49241c-370f-3d20-8227-f76ecf3087d2</versionedComponentId>
            <bulletinLevel>WARN</bulletinLevel>
            <bundle>
                <artifact>nifi-http-context-map-nar</artifact>
                <group>org.apache.nifi</group>
                <version>1.24.0</version>
            </bundle>
            <descriptors>
                <entry>
                    <key>Maximum Outstanding Requests</key>
                    <value>
                        <name>Maximum Outstanding Requests</name>
                    </value>
                </entry>
                <entry>
                    <key>Request Expiration</key>
                    <value>
                        <name>Request Expiration</name>
                    </value>
                </entry>
            </descriptors>
            <name>HttpContextMap</name>
            <persistsState>false</persistsState>
            <properties>
                <entry>
                    <key>Maximum Outstanding Requests</key>
                    <value>5000</value>
                </entry>
                <entry>
                    <key>Request Expiration</key>
                    <value>1 min</value>
                </entry>
            </properties>
            <state>ENABLED</state>
            <type>org.apache.nifi.http.StandardHttpContextMap</type>
        </controllerServices>
        <funnels>
            <id>5e9dc44b-30d0-3000-0000-000000000000</id>
            <parentGroupId>682f2593-fd1e-31ff-0000-000000000000</parentGroupId>
            <position>
                <x>1064.0</x>
                <y>746.0</y>
            </position>
            <versionedComponentId>5e9dc44b-30d0-3000-a523-5f3f27af7450</versionedComponentId>
        </funnels>
        <funnels>
            <id>64f2b7d0-5dd5-3f2d-0000-000000000000</id>
            <parentGroupId>682f2593-fd1e-31ff-0000-000000000000</parentGroupId>
            <position>
                <x>1439.4284670484285</x>
                <y>710.1778733863655</y>
            </position>
            <versionedComponentId>64f2b7d0-5dd5-3f2d-abec-427d57f5d887</versionedComponentId>
        </funnels>
        <funnels>
            <id>9aa49fdd-db59-3f86-0000-000000000000</id>
            <parentGroupId>682f2593-fd1e-31ff-0000-000000000000</parentGroupId>
            <position>
                <x>568.0</x>
                <y>746.0</y>
            </position>
            <versionedComponentId>9aa49fdd-db59-3f86-aa91-45bbf5d2149d</versionedComponentId>
        </funnels>
        <funnels>
            <id>c904f6ab-840e-3604-0000-000000000000</id>
            <parentGroupId>682f2593-fd1e-31ff-0000-000000000000</parentGroupId>
            <position>
                <x>1019.0</x>
                <y>0.0</y>
            </position>
            <versionedComponentId>c904f6ab-840e-3604-bcf0-f8ea78ec6e61</versionedComponentId>
        </funnels>
        <funnels>
            <id>de7aeadc-dfc6-3a87-0000-000000000000</id>
            <parentGroupId>682f2593-fd1e-31ff-0000-000000000000</parentGroupId>
            <position>
                <x>0.0</x>
                <y>474.0</y>
            </position>
        </funnels>
        <processors>
            <id>6e6713e9-b326-3458-0000-000000000000</id>
            <parentGroupId>682f2593-fd1e-31ff-0000-000000000000</parentGroupId>
            <position>
                <x>1331.0</x>
                <y>192.0</y>
            </position>
            <versionedComponentId>6e6713e9-b326-3458-9c1c-506272cd0965</versionedComponentId>
            <bundle>
                <artifact>nifi-update-attribute-nar</artifact>
                <group>org.apache.nifi</group>
                <version>1.24.0</version>
            </bundle>
            <config>
                <backoffMechanism>PENALIZE_FLOWFILE</backoffMechanism>
                <bulletinLevel>WARN</bulletinLevel>
                <comments></comments>
                <concurrentlySchedulableTaskCount>1</concurrentlySchedulableTaskCount>
                <descriptors>
                    <entry>
                        <key>Delete Attributes Expression</key>
                        <value>
                            <name>Delete Attributes Expression</name>
                        </value>
                    </entry>
                    <entry>
                        <key>Store State</key>
                        <value>
                            <name>Store State</name>
                        </value>
                    </entry>
                    <entry>
                        <key>Stateful Variables Initial Value</key>
                        <value>
                            <name>Stateful Variables Initial Value</name>
                        </value>
                    </entry>
                    <entry>
                        <key>canonical-value-lookup-cache-size</key>
                        <value>
                            <name>canonical-value-lookup-cache-size</name>
                        </value>
                    </entry>
                    <entry>
                        <key>timestamp</key>
                        <value>
                            <name>timestamp</name>
                        </value>
                    </entry>
                </descriptors>
                <executionNode>ALL</executionNode>
                <lossTolerant>false</lossTolerant>
                <maxBackoffPeriod>10 mins</maxBackoffPeriod>
                <penaltyDuration>30 sec</penaltyDuration>
                <properties>
                    <entry>
                        <key>Delete Attributes Expression</key>
                    </entry>
                    <entry>
                        <key>Store State</key>
                        <value>Do not store state</value>
                    </entry>
                    <entry>
                        <key>Stateful Variables Initial Value</key>
                    </entry>
                    <entry>
                        <key>canonical-value-lookup-cache-size</key>
                        <value>100</value>
                    </entry>
                    <entry>
                        <key>timestamp</key>
                        <value>${now():toNumber()}000000</value>
                    </entry>
                </properties>
                <retryCount>10</retryCount>
                <runDurationMillis>25</runDurationMillis>
                <schedulingPeriod>0 sec</schedulingPeriod>
                <schedulingStrategy>TIMER_DRIVEN</schedulingStrategy>
                <yieldDuration>1 sec</yieldDuration>
            </config>
            <executionNodeRestricted>false</executionNodeRestricted>
            <name>UpdateAttribute</name>
            <relationships>
                <autoTerminate>false</autoTerminate>
                <name>success</name>
                <retry>false</retry>
            </relationships>
            <state>RUNNING</state>
            <style/>
            <type>org.apache.nifi.processors.attributes.UpdateAttribute</type>
        </processors>
        <processors>
            <id>81af2ff9-afb0-32a9-0000-000000000000</id>
            <parentGroupId>682f2593-fd1e-31ff-0000-000000000000</parentGroupId>
            <position>
                <x>296.0</x>
                <y>186.0</y>
            </position>
            <versionedComponentId>81af2ff9-afb0-32a9-93eb-34bc68791b26</versionedComponentId>
            <bundle>
                <artifact>nifi-standard-nar</artifact>
                <group>org.apache.nifi</group>
                <version>1.24.0</version>
            </bundle>
            <config>
                <backoffMechanism>PENALIZE_FLOWFILE</backoffMechanism>
                <bulletinLevel>WARN</bulletinLevel>
                <comments></comments>
                <concurrentlySchedulableTaskCount>1</concurrentlySchedulableTaskCount>
                <descriptors>
                    <entry>
                        <key>Listening Port</key>
                        <value>
                            <name>Listening Port</name>
                        </value>
                    </entry>
                    <entry>
                        <key>Hostname</key>
                        <value>
                            <name>Hostname</name>
                        </value>
                    </entry>
                    <entry>
                        <key>SSL Context Service</key>
                        <value>
                            <identifiesControllerService>org.apache.nifi.ssl.RestrictedSSLContextService</identifiesControllerService>
                            <name>SSL Context Service</name>
                        </value>
                    </entry>
                    <entry>
                        <key>HTTP Protocols</key>
                        <value>
                            <dependencies>
<propertyName>SSL Context Service</propertyName>
                            </dependencies>
                            <name>HTTP Protocols</name>
                        </value>
                    </entry>
                    <entry>
                        <key>HTTP Context Map</key>
                        <value>
                            <identifiesControllerService>org.apache.nifi.http.HttpContextMap</identifiesControllerService>
                            <name>HTTP Context Map</name>
                        </value>
                    </entry>
                    <entry>
                        <key>Allowed Paths</key>
                        <value>
                            <name>Allowed Paths</name>
                        </value>
                    </entry>
                    <entry>
                        <key>Default URL Character Set</key>
                        <value>
                            <name>Default URL Character Set</name>
                        </value>
                    </entry>
                    <entry>
                        <key>Allow GET</key>
                        <value>
                            <name>Allow GET</name>
                        </value>
                    </entry>
                    <entry>
                        <key>Allow POST</key>
                        <value>
                            <name>Allow POST</name>
                        </value>
                    </entry>
                    <entry>
                        <key>Allow PUT</key>
                        <value>
                            <name>Allow PUT</name>
                        </value>
                    </entry>
                    <entry>
                        <key>Allow DELETE</key>
                        <value>
                            <name>Allow DELETE</name>
                        </value>
                    </entry>
                    <entry>
                        <key>Allow HEAD</key>
                        <value>
                            <name>Allow HEAD</name>
                        </value>
                    </entry>
                    <entry>
                        <key>Allow OPTIONS</key>
                        <value>
                            <name>Allow OPTIONS</name>
                        </value>
                    </entry>
                    <entry>
                        <key>Maximum Threads</key>
                        <value>
                            <name>Maximum Threads</name>
                        </value>
                    </entry>
                    <entry>
                        <key>Additional HTTP Methods</key>
                        <value>
                            <name>Additional HTTP Methods</name>
                        </value>
                    </entry>
                    <entry>
                        <key>Client Authentication</key>
                        <value>
                            <name>Client Authentication</name>
                        </value>
                    </entry>
                    <entry>
                        <key>container-queue-size</key>
                        <value>
                            <name>container-queue-size</name>
                        </value>
                    </entry>
                    <entry>
                        <key>multipart-request-max-size</key>
                        <value>
                            <name>multipart-request-max-size</name>
                        </value>
                    </entry>
                    <entry>
                        <key>multipart-read-buffer-size</key>
                        <value>
                            <name>multipart-read-buffer-size</name>
                        </value>
                    </entry>
                    <entry>
                        <key>parameters-to-attributes</key>
                        <value>
                            <name>parameters-to-attributes</name>
                        </value>
                    </entry>
                </descriptors>
                <executionNode>ALL</executionNode>
                <lossTolerant>false</lossTolerant>
                <maxBackoffPeriod>10 mins</maxBackoffPeriod>
                <penaltyDuration>30 sec</penaltyDuration>
                <properties>
                    <entry>
                        <key>Listening Port</key>
                        <value>8081</value>
                    </entry>
                    <entry>
                        <key>Hostname</key>
                        <value>0.0.0.0</value>
                    </entry>
                    <entry>